gem5 Simulator System.  https://www.gem5.org
gem5 is copyrighted software; use the --copyright option for details.

gem5 version 23.0.1.0
gem5 compiled Oct 21 2024 20:44:54
gem5 started Oct 31 2024 15:37:23
gem5 executing on fyz-1, pid 106171
command line: gem5.opt -r /home/fyz/Documents/gem-assignment-template/gem5_assignment/run.py

NameError: name 'np' is not defined

At:
  /home/fyz/Documents/gem-assignment-template/gem5_assignment/workloads/mat_mul_workload.py(23): __init__
  /home/fyz/Documents/gem-assignment-template/gem5_assignment/run.py(26): <module>
  src/python/m5/main.py(630): main
